*Heading
** Job name: include_mesh_DoE40 Model name: Model-1
** Generated by: Abaqus/CAE 6.14-1
*Preprint, echo=NO, model=NO, history=NO, contact=NO
**
** PARTS
**
*Part, name=AnalyticSurf
*End Part
**  
*Part, name=longerons
*Node
      1,         -25.,   43.3012695,           0.
      2,        -12.5,   21.6506348,   33.7398987
      3,          50.,           0.,           0.
      4,          25.,           0.,   33.7398987
      5,         -25.,  -43.3012695,           0.
      6,        -12.5,  -21.6506348,   33.7398987
      7,  -24.9664879,   43.2432251, 0.0904554948
      8,  -24.9329758,   43.1851807,   0.18091099
      9,  -24.8994637,   43.1271362,  0.271366477
     10,  -24.8659515,   43.0690918,  0.361821979
     11,  -24.8324394,   43.0110474,  0.452277482
     12,  -24.7989273,   42.9530029,  0.542732954
     13,  -24.7654152,   42.8949585,  0.633188486
     14,  -24.7319031,   42.8369141,  0.723643959
     15,   -24.698391,   42.7788696,  0.814099491
     16,  -24.6648788,   42.7208252,  0.904554963
     17,  -24.6313667,   42.6627808,  0.995010436
     18,  -24.5978546,   42.6047363,   1.08546591
     19,  -24.5643425,   42.5466919,   1.17592144
     20,  -24.5308304,   42.4886475,   1.26637697
** ... 1102 like lines cut
*Element, type=B31
  1,   1,   7
  2,   7,   8
  3,   8,   9
  4,   9,  10
  5,  10,  11
  6,  11,  12
  7,  12,  13
  8,  13,  14
  9,  14,  15
 10,  15,  16
 11,  16,  17
 12,  17,  18
 13,  18,  19
 14,  19,  20
 15,  20,  21
 16,  21,  22
 17,  22,  23
 18,  23,  24
 19,  24,  25
 20,  25,  26
** ... 1099 like lines cut
*Nset, nset=longeron-0_set
   3,   4, 379, 380, 381, 382, 383, 384, 385, 386, 387, 388, 389, 390, 391, 392
 393, 394, 395, 396, 397, 398, 399, 400, 401, 402, 403, 404, 405, 406, 407, 408
 409, 410, 411, 412, 413, 414, 415, 416, 417, 418, 419, 420, 421, 422, 423, 424
 425, 426, 427, 428, 429, 430, 431, 432, 433, 434, 435, 436, 437, 438, 439, 440
 441, 442, 443, 444, 445, 446, 447, 448, 449, 450, 451, 452, 453, 454, 455, 456
 457, 458, 459, 460, 461, 462, 463, 464, 465, 466, 467, 468, 469, 470, 471, 472
 473, 474, 475, 476, 477, 478, 479, 480, 481, 482, 483, 484, 485, 486, 487, 488
 489, 490, 491, 492, 493, 494, 495, 496, 497, 498, 499, 500, 501, 502, 503, 504
 505, 506, 507, 508, 509, 510, 511, 512, 513, 514, 515, 516, 517, 518, 519, 520
 521, 522, 523, 524, 525, 526, 527, 528, 529, 530, 531, 532, 533, 534, 535, 536
 537, 538, 539, 540, 541, 542, 543, 544, 545, 546, 547, 548, 549, 550, 551, 552
 553, 554, 555, 556, 557, 558, 559, 560, 561, 562, 563, 564, 565, 566, 567, 568
 569, 570, 571, 572, 573, 574, 575, 576, 577, 578, 579, 580, 581, 582, 583, 584
 585, 586, 587, 588, 589, 590, 591, 592, 593, 594, 595, 596, 597, 598, 599, 600
 601, 602, 603, 604, 605, 606, 607, 608, 609, 610, 611, 612, 613, 614, 615, 616
 617, 618, 619, 620, 621, 622, 623, 624, 625, 626, 627, 628, 629, 630, 631, 632
 633, 634, 635, 636, 637, 638, 639, 640, 641, 642, 643, 644, 645, 646, 647, 648
 649, 650, 651, 652, 653, 654, 655, 656, 657, 658, 659, 660, 661, 662, 663, 664
 665, 666, 667, 668, 669, 670, 671, 672, 673, 674, 675, 676, 677, 678, 679, 680
 681, 682, 683, 684, 685, 686, 687, 688, 689, 690, 691, 692, 693, 694, 695, 696
** ... 4 like lines cut
*Elset, elset=longeron-0_set, generate
 374,  746,    1
*Nset, nset=longeron-1_set
   1,   2,   7,   8,   9,  10,  11,  12,  13,  14,  15,  16,  17,  18,  19,  20
  21,  22,  23,  24,  25,  26,  27,  28,  29,  30,  31,  32,  33,  34,  35,  36
  37,  38,  39,  40,  41,  42,  43,  44,  45,  46,  47,  48,  49,  50,  51,  52
  53,  54,  55,  56,  57,  58,  59,  60,  61,  62,  63,  64,  65,  66,  67,  68
  69,  70,  71,  72,  73,  74,  75,  76,  77,  78,  79,  80,  81,  82,  83,  84
  85,  86,  87,  88,  89,  90,  91,  92,  93,  94,  95,  96,  97,  98,  99, 100
 101, 102, 103, 104, 105, 106, 107, 108, 109, 110, 111, 112, 113, 114, 115, 116
 117, 118, 119, 120, 121, 122, 123, 124, 125, 126, 127, 128, 129, 130, 131, 132
 133, 134, 135, 136, 137, 138, 139, 140, 141, 142, 143, 144, 145, 146, 147, 148
 149, 150, 151, 152, 153, 154, 155, 156, 157, 158, 159, 160, 161, 162, 163, 164
 165, 166, 167, 168, 169, 170, 171, 172, 173, 174, 175, 176, 177, 178, 179, 180
 181, 182, 183, 184, 185, 186, 187, 188, 189, 190, 191, 192, 193, 194, 195, 196
 197, 198, 199, 200, 201, 202, 203, 204, 205, 206, 207, 208, 209, 210, 211, 212
 213, 214, 215, 216, 217, 218, 219, 220, 221, 222, 223, 224, 225, 226, 227, 228
 229, 230, 231, 232, 233, 234, 235, 236, 237, 238, 239, 240, 241, 242, 243, 244
 245, 246, 247, 248, 249, 250, 251, 252, 253, 254, 255, 256, 257, 258, 259, 260
 261, 262, 263, 264, 265, 266, 267, 268, 269, 270, 271, 272, 273, 274, 275, 276
 277, 278, 279, 280, 281, 282, 283, 284, 285, 286, 287, 288, 289, 290, 291, 292
 293, 294, 295, 296, 297, 298, 299, 300, 301, 302, 303, 304, 305, 306, 307, 308
 309, 310, 311, 312, 313, 314, 315, 316, 317, 318, 319, 320, 321, 322, 323, 324
** ... 4 like lines cut
*Elset, elset=longeron-1_set, generate
   1,  373,    1
*Nset, nset=longeron-2_set
    5,    6,  751,  752,  753,  754,  755,  756,  757,  758,  759,  760,  761,  762,  763,  764
  765,  766,  767,  768,  769,  770,  771,  772,  773,  774,  775,  776,  777,  778,  779,  780
  781,  782,  783,  784,  785,  786,  787,  788,  789,  790,  791,  792,  793,  794,  795,  796
  797,  798,  799,  800,  801,  802,  803,  804,  805,  806,  807,  808,  809,  810,  811,  812
  813,  814,  815,  816,  817,  818,  819,  820,  821,  822,  823,  824,  825,  826,  827,  828
  829,  830,  831,  832,  833,  834,  835,  836,  837,  838,  839,  840,  841,  842,  843,  844
  845,  846,  847,  848,  849,  850,  851,  852,  853,  854,  855,  856,  857,  858,  859,  860
  861,  862,  863,  864,  865,  866,  867,  868,  869,  870,  871,  872,  873,  874,  875,  876
  877,  878,  879,  880,  881,  882,  883,  884,  885,  886,  887,  888,  889,  890,  891,  892
  893,  894,  895,  896,  897,  898,  899,  900,  901,  902,  903,  904,  905,  906,  907,  908
  909,  910,  911,  912,  913,  914,  915,  916,  917,  918,  919,  920,  921,  922,  923,  924
  925,  926,  927,  928,  929,  930,  931,  932,  933,  934,  935,  936,  937,  938,  939,  940
  941,  942,  943,  944,  945,  946,  947,  948,  949,  950,  951,  952,  953,  954,  955,  956
  957,  958,  959,  960,  961,  962,  963,  964,  965,  966,  967,  968,  969,  970,  971,  972
  973,  974,  975,  976,  977,  978,  979,  980,  981,  982,  983,  984,  985,  986,  987,  988
  989,  990,  991,  992,  993,  994,  995,  996,  997,  998,  999, 1000, 1001, 1002, 1003, 1004
 1005, 1006, 1007, 1008, 1009, 1010, 1011, 1012, 1013, 1014, 1015, 1016, 1017, 1018, 1019, 1020
 1021, 1022, 1023, 1024, 1025, 1026, 1027, 1028, 1029, 1030, 1031, 1032, 1033, 1034, 1035, 1036
 1037, 1038, 1039, 1040, 1041, 1042, 1043, 1044, 1045, 1046, 1047, 1048, 1049, 1050, 1051, 1052
 1053, 1054, 1055, 1056, 1057, 1058, 1059, 1060, 1061, 1062, 1063, 1064, 1065, 1066, 1067, 1068
** ... 4 like lines cut
*Elset, elset=longeron-2_set, generate
  747,  1119,     1
*Nset, nset=all_longerons_set, generate
    1,  1122,     1
*Elset, elset=all_longerons_set, generate
    1,  1119,     1
*Nset, nset=joint-0-0
 3,
*Nset, nset=joint-0-1
 1,
*Nset, nset=joint-0-2
 5,
*Nset, nset=joint-1-0
 4,
*Nset, nset=joint-1-1
 2,
*Nset, nset=joint-1-2
 6,
*Nset, nset=all_joints_set, generate
 1,  6,  1
*Nset, nset=bot_joints_set, generate
 1,  5,  2
*Nset, nset=top_joints_set, generate
 2,  6,  2
*Elset, elset=_all_longerons_surface_, internal, generate
    1,  1119,     1
*Surface, type=ELEMENT, name=all_longerons_surface
_all_longerons_surface_, 
** Region: (LongeronsSection:all_longerons_set), (Beam Orientation:longeron-1_set)
*Elset, elset=_I1, internal, generate
   1,  373,    1
** Section: LongeronsSection  Profile: LongeronsProfile
*Beam General Section, elset=_I1, poisson = 0.31, density=0.00124, section=GENERAL
10.0007, 109.476, 0., 75., 250.
-25.,43.3013,0.
1826., 657.374
** Region: (LongeronsSection:all_longerons_set), (Beam Orientation:longeron-0_set)
*Elset, elset=_I2, internal, generate
 374,  746,    1
** Section: LongeronsSection  Profile: LongeronsProfile
*Beam General Section, elset=_I2, poisson = 0.31, density=0.00124, section=GENERAL
10.0007, 109.476, 0., 75., 250.
50.,0.,0.
1826., 657.374
** Region: (LongeronsSection:all_longerons_set), (Beam Orientation:longeron-2_set)
*Elset, elset=_I3, internal, generate
  747,  1119,     1
** Section: LongeronsSection  Profile: LongeronsProfile
*Beam General Section, elset=_I3, poisson = 0.31, density=0.00124, section=GENERAL
10.0007, 109.476, 0., 75., 250.
-25.,-43.3013,0.
1826., 657.374
*End Part
**  
**
** ASSEMBLY
**
*Assembly, name=Assembly
**  
*Instance, name=longerons-1-1, part=longerons
*End Instance
**  
*Instance, name=AnalyticSurf-1-1, part=AnalyticSurf
          0.,           0.,           0.
          0.,           0.,           0.,           0., 1.00000001268805,           0., 89.9999992730282
*Surface, type=CYLINDER, name=rigid_support
START,           0.,         -55.
 LINE,           0.,          55.
*End Instance
**  
*Node
      1,           0.,           0.,         -55.
*Node
      2,           0.,           0.,   88.7398987
*Nset, nset=RP_ZmYmXm
 1,
*Nset, nset=RP_ZpYmXm
 2,
*Nset, nset=_G10, internal
 1,
*Surface, type=NODE, name=longerons-1-1_joint-0-0_CNS_, internal
longerons-1-1.joint-0-0, 1.
*Surface, type=NODE, name=longerons-1-1_joint-0-1_CNS_, internal
longerons-1-1.joint-0-1, 1.
*Surface, type=NODE, name=longerons-1-1_joint-0-2_CNS_, internal
longerons-1-1.joint-0-2, 1.
*Surface, type=NODE, name=longerons-1-1_joint-1-0_CNS_, internal
longerons-1-1.joint-1-0, 1.
*Surface, type=NODE, name=longerons-1-1_joint-1-1_CNS_, internal
longerons-1-1.joint-1-1, 1.
*Surface, type=NODE, name=longerons-1-1_joint-1-2_CNS_, internal
longerons-1-1.joint-1-2, 1.
*Orientation, name=longerons-1-1-Local_Datum_0
         -1.,           0.,           0.,           0.,          -1.,           0.
1, 0.
*Orientation, name=longerons-1-1-Local_Datum_1
         0.5, -0.866025403784439,           0., 0.866025403784439,          0.5,           0.
1, 0.
*Orientation, name=longerons-1-1-Local_Datum_2
         0.5, 0.866025403784438,           0., -0.866025403784438,          0.5,           0.
1, 0.
** Constraint: Constraint-RigidBody_surf_bot-1
*Rigid Body, ref node=_G10, analytical surface=AnalyticSurf-1-1.rigid_support
** Constraint: RP_ZmYmXm_PinConstraint-0-0
*Coupling, constraint name=RP_ZmYmXm_PinConstraint-0-0, ref node=RP_ZmYmXm, surface=longerons-1-1_joint-0-0_CNS_, orientation=longerons-1-1-Local_Datum_0
*Kinematic
1, 1
2, 2
3, 3
5, 5
6, 6
** Constraint: RP_ZmYmXm_PinConstraint-0-1
*Coupling, constraint name=RP_ZmYmXm_PinConstraint-0-1, ref node=RP_ZmYmXm, surface=longerons-1-1_joint-0-1_CNS_, orientation=longerons-1-1-Local_Datum_1
*Kinematic
1, 1
2, 2
3, 3
5, 5
6, 6
** Constraint: RP_ZmYmXm_PinConstraint-0-2
*Coupling, constraint name=RP_ZmYmXm_PinConstraint-0-2, ref node=RP_ZmYmXm, surface=longerons-1-1_joint-0-2_CNS_, orientation=longerons-1-1-Local_Datum_2
*Kinematic
1, 1
2, 2
3, 3
5, 5
6, 6
** Constraint: RP_ZpYmXm_PinConstraint-1-0
*Coupling, constraint name=RP_ZpYmXm_PinConstraint-1-0, ref node=RP_ZpYmXm, surface=longerons-1-1_joint-1-0_CNS_, orientation=longerons-1-1-Local_Datum_0
*Kinematic
1, 1
2, 2
3, 3
5, 5
6, 6
** Constraint: RP_ZpYmXm_PinConstraint-1-1
*Coupling, constraint name=RP_ZpYmXm_PinConstraint-1-1, ref node=RP_ZpYmXm, surface=longerons-1-1_joint-1-1_CNS_, orientation=longerons-1-1-Local_Datum_1
*Kinematic
1, 1
2, 2
3, 3
5, 5
6, 6
** Constraint: RP_ZpYmXm_PinConstraint-1-2
*Coupling, constraint name=RP_ZpYmXm_PinConstraint-1-2, ref node=RP_ZpYmXm, surface=longerons-1-1_joint-1-2_CNS_, orientation=longerons-1-1-Local_Datum_2
*Kinematic
1, 1
2, 2
3, 3
5, 5
6, 6
*End Assembly
** 
** MATERIALS
** 
*Material, name=CNT
*Density
 0.001,
*Elastic
 1e+06, 0.3
*Material, name=NiTi_alloy
*Density
 0.001,
*Elastic
83000., 0.31
*Material, name=PC
*Density
 0.00119,
*Elastic
2134., 0.27
*Material, name=PLA
*Density
 0.00124,
*Elastic
1826., 0.38886
