*Heading
** Job name: include_mesh_DoE4 Model name: Model-1
** Generated by: Abaqus/CAE 6.14-1
*Preprint, echo=NO, model=NO, history=NO, contact=NO
**
** PARTS
**
*Part, name=AnalyticSurf
*End Part
**  
*Part, name=longerons
*Node
      1,         -25.,   43.3012695,           0.
      2,        -12.5,   21.6506348,   98.4616013
      3,          50.,           0.,           0.
      4,          25.,           0.,   98.4616013
      5,         -25.,  -43.3012695,           0.
      6,        -12.5,  -21.6506348,   98.4616013
      7,  -24.9795074,   43.2657776,  0.161412463
      8,  -24.9590168,   43.2302856,  0.322824925
      9,  -24.9385242,   43.1947899,  0.484237373
     10,  -24.9180336,   43.1592979,   0.64564985
     11,   -24.897541,    43.123806,  0.807062268
     12,  -24.8770485,   43.0883141,  0.968474746
     13,  -24.8565578,   43.0528221,   1.12988722
     14,  -24.8360653,   43.0173264,    1.2912997
     15,  -24.8155746,   42.9818344,   1.45271218
     16,  -24.7950821,   42.9463425,   1.61412454
     17,  -24.7745895,   42.9108505,   1.77553701
     18,  -24.7540989,   42.8753548,   1.93694949
     19,  -24.7336063,   42.8398628,   2.09836197
     20,  -24.7131157,   42.8043709,   2.25977445
** ... 1813 like lines cut
*Element, type=B31
  1,   1,   7
  2,   7,   8
  3,   8,   9
  4,   9,  10
  5,  10,  11
  6,  11,  12
  7,  12,  13
  8,  13,  14
  9,  14,  15
 10,  15,  16
 11,  16,  17
 12,  17,  18
 13,  18,  19
 14,  19,  20
 15,  20,  21
 16,  21,  22
 17,  22,  23
 18,  23,  24
 19,  24,  25
 20,  25,  26
** ... 1810 like lines cut
*Nset, nset=longeron-0_set
    3,    4,  616,  617,  618,  619,  620,  621,  622,  623,  624,  625,  626,  627,  628,  629
  630,  631,  632,  633,  634,  635,  636,  637,  638,  639,  640,  641,  642,  643,  644,  645
  646,  647,  648,  649,  650,  651,  652,  653,  654,  655,  656,  657,  658,  659,  660,  661
  662,  663,  664,  665,  666,  667,  668,  669,  670,  671,  672,  673,  674,  675,  676,  677
  678,  679,  680,  681,  682,  683,  684,  685,  686,  687,  688,  689,  690,  691,  692,  693
  694,  695,  696,  697,  698,  699,  700,  701,  702,  703,  704,  705,  706,  707,  708,  709
  710,  711,  712,  713,  714,  715,  716,  717,  718,  719,  720,  721,  722,  723,  724,  725
  726,  727,  728,  729,  730,  731,  732,  733,  734,  735,  736,  737,  738,  739,  740,  741
  742,  743,  744,  745,  746,  747,  748,  749,  750,  751,  752,  753,  754,  755,  756,  757
  758,  759,  760,  761,  762,  763,  764,  765,  766,  767,  768,  769,  770,  771,  772,  773
  774,  775,  776,  777,  778,  779,  780,  781,  782,  783,  784,  785,  786,  787,  788,  789
  790,  791,  792,  793,  794,  795,  796,  797,  798,  799,  800,  801,  802,  803,  804,  805
  806,  807,  808,  809,  810,  811,  812,  813,  814,  815,  816,  817,  818,  819,  820,  821
  822,  823,  824,  825,  826,  827,  828,  829,  830,  831,  832,  833,  834,  835,  836,  837
  838,  839,  840,  841,  842,  843,  844,  845,  846,  847,  848,  849,  850,  851,  852,  853
  854,  855,  856,  857,  858,  859,  860,  861,  862,  863,  864,  865,  866,  867,  868,  869
  870,  871,  872,  873,  874,  875,  876,  877,  878,  879,  880,  881,  882,  883,  884,  885
  886,  887,  888,  889,  890,  891,  892,  893,  894,  895,  896,  897,  898,  899,  900,  901
  902,  903,  904,  905,  906,  907,  908,  909,  910,  911,  912,  913,  914,  915,  916,  917
  918,  919,  920,  921,  922,  923,  924,  925,  926,  927,  928,  929,  930,  931,  932,  933
** ... 19 like lines cut
*Elset, elset=longeron-0_set, generate
  611,  1220,     1
*Nset, nset=longeron-1_set
   1,   2,   7,   8,   9,  10,  11,  12,  13,  14,  15,  16,  17,  18,  19,  20
  21,  22,  23,  24,  25,  26,  27,  28,  29,  30,  31,  32,  33,  34,  35,  36
  37,  38,  39,  40,  41,  42,  43,  44,  45,  46,  47,  48,  49,  50,  51,  52
  53,  54,  55,  56,  57,  58,  59,  60,  61,  62,  63,  64,  65,  66,  67,  68
  69,  70,  71,  72,  73,  74,  75,  76,  77,  78,  79,  80,  81,  82,  83,  84
  85,  86,  87,  88,  89,  90,  91,  92,  93,  94,  95,  96,  97,  98,  99, 100
 101, 102, 103, 104, 105, 106, 107, 108, 109, 110, 111, 112, 113, 114, 115, 116
 117, 118, 119, 120, 121, 122, 123, 124, 125, 126, 127, 128, 129, 130, 131, 132
 133, 134, 135, 136, 137, 138, 139, 140, 141, 142, 143, 144, 145, 146, 147, 148
 149, 150, 151, 152, 153, 154, 155, 156, 157, 158, 159, 160, 161, 162, 163, 164
 165, 166, 167, 168, 169, 170, 171, 172, 173, 174, 175, 176, 177, 178, 179, 180
 181, 182, 183, 184, 185, 186, 187, 188, 189, 190, 191, 192, 193, 194, 195, 196
 197, 198, 199, 200, 201, 202, 203, 204, 205, 206, 207, 208, 209, 210, 211, 212
 213, 214, 215, 216, 217, 218, 219, 220, 221, 222, 223, 224, 225, 226, 227, 228
 229, 230, 231, 232, 233, 234, 235, 236, 237, 238, 239, 240, 241, 242, 243, 244
 245, 246, 247, 248, 249, 250, 251, 252, 253, 254, 255, 256, 257, 258, 259, 260
 261, 262, 263, 264, 265, 266, 267, 268, 269, 270, 271, 272, 273, 274, 275, 276
 277, 278, 279, 280, 281, 282, 283, 284, 285, 286, 287, 288, 289, 290, 291, 292
 293, 294, 295, 296, 297, 298, 299, 300, 301, 302, 303, 304, 305, 306, 307, 308
 309, 310, 311, 312, 313, 314, 315, 316, 317, 318, 319, 320, 321, 322, 323, 324
** ... 19 like lines cut
*Elset, elset=longeron-1_set, generate
   1,  610,    1
*Nset, nset=longeron-2_set
    5,    6, 1225, 1226, 1227, 1228, 1229, 1230, 1231, 1232, 1233, 1234, 1235, 1236, 1237, 1238
 1239, 1240, 1241, 1242, 1243, 1244, 1245, 1246, 1247, 1248, 1249, 1250, 1251, 1252, 1253, 1254
 1255, 1256, 1257, 1258, 1259, 1260, 1261, 1262, 1263, 1264, 1265, 1266, 1267, 1268, 1269, 1270
 1271, 1272, 1273, 1274, 1275, 1276, 1277, 1278, 1279, 1280, 1281, 1282, 1283, 1284, 1285, 1286
 1287, 1288, 1289, 1290, 1291, 1292, 1293, 1294, 1295, 1296, 1297, 1298, 1299, 1300, 1301, 1302
 1303, 1304, 1305, 1306, 1307, 1308, 1309, 1310, 1311, 1312, 1313, 1314, 1315, 1316, 1317, 1318
 1319, 1320, 1321, 1322, 1323, 1324, 1325, 1326, 1327, 1328, 1329, 1330, 1331, 1332, 1333, 1334
 1335, 1336, 1337, 1338, 1339, 1340, 1341, 1342, 1343, 1344, 1345, 1346, 1347, 1348, 1349, 1350
 1351, 1352, 1353, 1354, 1355, 1356, 1357, 1358, 1359, 1360, 1361, 1362, 1363, 1364, 1365, 1366
 1367, 1368, 1369, 1370, 1371, 1372, 1373, 1374, 1375, 1376, 1377, 1378, 1379, 1380, 1381, 1382
 1383, 1384, 1385, 1386, 1387, 1388, 1389, 1390, 1391, 1392, 1393, 1394, 1395, 1396, 1397, 1398
 1399, 1400, 1401, 1402, 1403, 1404, 1405, 1406, 1407, 1408, 1409, 1410, 1411, 1412, 1413, 1414
 1415, 1416, 1417, 1418, 1419, 1420, 1421, 1422, 1423, 1424, 1425, 1426, 1427, 1428, 1429, 1430
 1431, 1432, 1433, 1434, 1435, 1436, 1437, 1438, 1439, 1440, 1441, 1442, 1443, 1444, 1445, 1446
 1447, 1448, 1449, 1450, 1451, 1452, 1453, 1454, 1455, 1456, 1457, 1458, 1459, 1460, 1461, 1462
 1463, 1464, 1465, 1466, 1467, 1468, 1469, 1470, 1471, 1472, 1473, 1474, 1475, 1476, 1477, 1478
 1479, 1480, 1481, 1482, 1483, 1484, 1485, 1486, 1487, 1488, 1489, 1490, 1491, 1492, 1493, 1494
 1495, 1496, 1497, 1498, 1499, 1500, 1501, 1502, 1503, 1504, 1505, 1506, 1507, 1508, 1509, 1510
 1511, 1512, 1513, 1514, 1515, 1516, 1517, 1518, 1519, 1520, 1521, 1522, 1523, 1524, 1525, 1526
 1527, 1528, 1529, 1530, 1531, 1532, 1533, 1534, 1535, 1536, 1537, 1538, 1539, 1540, 1541, 1542
** ... 19 like lines cut
*Elset, elset=longeron-2_set, generate
 1221,  1830,     1
*Nset, nset=all_longerons_set, generate
    1,  1833,     1
*Elset, elset=all_longerons_set, generate
    1,  1830,     1
*Nset, nset=joint-0-0
 3,
*Nset, nset=joint-0-1
 1,
*Nset, nset=joint-0-2
 5,
*Nset, nset=joint-1-0
 4,
*Nset, nset=joint-1-1
 2,
*Nset, nset=joint-1-2
 6,
*Nset, nset=all_joints_set, generate
 1,  6,  1
*Nset, nset=bot_joints_set, generate
 1,  5,  2
*Nset, nset=top_joints_set, generate
 2,  6,  2
*Elset, elset=_all_longerons_surface_, internal, generate
    1,  1830,     1
*Surface, type=ELEMENT, name=all_longerons_surface
_all_longerons_surface_, 
** Region: (LongeronsSection:all_longerons_set), (Beam Orientation:longeron-1_set)
*Elset, elset=_I1, internal, generate
   1,  610,    1
** Section: LongeronsSection  Profile: LongeronsProfile
*Beam General Section, elset=_I1, poisson = 0.31, density=0.00124, section=GENERAL
10.0006, 121.045, 0., 75., 250.
-25.,43.3013,0.
1826., 657.373
** Region: (LongeronsSection:all_longerons_set), (Beam Orientation:longeron-0_set)
*Elset, elset=_I2, internal, generate
  611,  1220,     1
** Section: LongeronsSection  Profile: LongeronsProfile
*Beam General Section, elset=_I2, poisson = 0.31, density=0.00124, section=GENERAL
10.0006, 121.045, 0., 75., 250.
50.,0.,0.
1826., 657.373
** Region: (LongeronsSection:all_longerons_set), (Beam Orientation:longeron-2_set)
*Elset, elset=_I3, internal, generate
 1221,  1830,     1
** Section: LongeronsSection  Profile: LongeronsProfile
*Beam General Section, elset=_I3, poisson = 0.31, density=0.00124, section=GENERAL
10.0006, 121.045, 0., 75., 250.
-25.,-43.3013,0.
1826., 657.373
*End Part
**  
**
** ASSEMBLY
**
*Assembly, name=Assembly
**  
*Instance, name=longerons-1-1, part=longerons
*End Instance
**  
*Instance, name=AnalyticSurf-1-1, part=AnalyticSurf
          0.,           0.,           0.
          0.,           0.,           0.,           0., 1.00000001268805,           0., 89.9999992730282
*Surface, type=CYLINDER, name=rigid_support
START,           0.,         -55.
 LINE,           0.,          55.
*End Instance
**  
*Node
      1,           0.,           0.,         -55.
*Node
      2,           0.,           0.,   153.461594
*Nset, nset=RP_ZmYmXm
 1,
*Nset, nset=RP_ZpYmXm
 2,
*Nset, nset=_G10, internal
 1,
*Surface, type=NODE, name=longerons-1-1_joint-0-0_CNS_, internal
longerons-1-1.joint-0-0, 1.
*Surface, type=NODE, name=longerons-1-1_joint-0-1_CNS_, internal
longerons-1-1.joint-0-1, 1.
*Surface, type=NODE, name=longerons-1-1_joint-0-2_CNS_, internal
longerons-1-1.joint-0-2, 1.
*Surface, type=NODE, name=longerons-1-1_joint-1-0_CNS_, internal
longerons-1-1.joint-1-0, 1.
*Surface, type=NODE, name=longerons-1-1_joint-1-1_CNS_, internal
longerons-1-1.joint-1-1, 1.
*Surface, type=NODE, name=longerons-1-1_joint-1-2_CNS_, internal
longerons-1-1.joint-1-2, 1.
*Orientation, name=longerons-1-1-Local_Datum_0
         -1.,           0.,           0.,           0.,          -1.,           0.
1, 0.
*Orientation, name=longerons-1-1-Local_Datum_1
         0.5, -0.866025403784439,           0., 0.866025403784439,          0.5,           0.
1, 0.
*Orientation, name=longerons-1-1-Local_Datum_2
         0.5, 0.866025403784438,           0., -0.866025403784438,          0.5,           0.
1, 0.
** Constraint: Constraint-RigidBody_surf_bot-1
*Rigid Body, ref node=_G10, analytical surface=AnalyticSurf-1-1.rigid_support
** Constraint: RP_ZmYmXm_PinConstraint-0-0
*Coupling, constraint name=RP_ZmYmXm_PinConstraint-0-0, ref node=RP_ZmYmXm, surface=longerons-1-1_joint-0-0_CNS_, orientation=longerons-1-1-Local_Datum_0
*Kinematic
1, 1
2, 2
3, 3
5, 5
6, 6
** Constraint: RP_ZmYmXm_PinConstraint-0-1
*Coupling, constraint name=RP_ZmYmXm_PinConstraint-0-1, ref node=RP_ZmYmXm, surface=longerons-1-1_joint-0-1_CNS_, orientation=longerons-1-1-Local_Datum_1
*Kinematic
1, 1
2, 2
3, 3
5, 5
6, 6
** Constraint: RP_ZmYmXm_PinConstraint-0-2
*Coupling, constraint name=RP_ZmYmXm_PinConstraint-0-2, ref node=RP_ZmYmXm, surface=longerons-1-1_joint-0-2_CNS_, orientation=longerons-1-1-Local_Datum_2
*Kinematic
1, 1
2, 2
3, 3
5, 5
6, 6
** Constraint: RP_ZpYmXm_PinConstraint-1-0
*Coupling, constraint name=RP_ZpYmXm_PinConstraint-1-0, ref node=RP_ZpYmXm, surface=longerons-1-1_joint-1-0_CNS_, orientation=longerons-1-1-Local_Datum_0
*Kinematic
1, 1
2, 2
3, 3
5, 5
6, 6
** Constraint: RP_ZpYmXm_PinConstraint-1-1
*Coupling, constraint name=RP_ZpYmXm_PinConstraint-1-1, ref node=RP_ZpYmXm, surface=longerons-1-1_joint-1-1_CNS_, orientation=longerons-1-1-Local_Datum_1
*Kinematic
1, 1
2, 2
3, 3
5, 5
6, 6
** Constraint: RP_ZpYmXm_PinConstraint-1-2
*Coupling, constraint name=RP_ZpYmXm_PinConstraint-1-2, ref node=RP_ZpYmXm, surface=longerons-1-1_joint-1-2_CNS_, orientation=longerons-1-1-Local_Datum_2
*Kinematic
1, 1
2, 2
3, 3
5, 5
6, 6
*End Assembly
** 
** MATERIALS
** 
*Material, name=CNT
*Density
 0.001,
*Elastic
 1e+06, 0.3
*Material, name=NiTi_alloy
*Density
 0.001,
*Elastic
83000., 0.31
*Material, name=PC
*Density
 0.00119,
*Elastic
2134., 0.27
*Material, name=PLA
*Density
 0.00124,
*Elastic
1826., 0.388862
